This is a text-indentation function ``text_indentation(text)``.


Print text with two new lines after each of these characters ``.``, ``?``,
and ``:``.


::


    >>> text_indentation = __import__('5-text_indentation').text_indentation
    >>> text_indentation("Hello?")
    Hello?
    <BLANKLINE>


Do not print leading white spaces


::


    >>> text_indentation("   Hi there.")
    Hi there.
    <BLANKLINE>


::


    >>> text_indentation("          ")


Do not print trailing white spaces


::


    >>> text_indentation("Hello.   ")
    Hello.
    <BLANKLINE>


::


    >>> text_indentation("    This is.    An example.   ")
    Woah now.
    <BLANKLINE>
    This is messy.
    <BLANKLINE>


Print new lines for these characters only ``.``, ``?``, and ``:`` -



::


    >>> text_indentation("No ending period")
    No ending period


Print new lines normally.


::


    >>> text_indentation("Print a new-line! New line:\nPrinted.")
    Print a new-line! New line:
    <BLANKLINE>
    <BLANKLINE>
    Printed.
    <BLANKLINE>


::


    >>> text_indentation("\n\n\n 3 new lines printed.")
    <BLANKLINE>
    <BLANKLINE>
    <BLANKLINE>
    3 new lines printed.
    <BLANKLINE>


::
    >>> text_indentation("A funny \n new line.")
    A funny
    new line.
    <BLANKLINE>


An example:


::


    >>> text_indentation("Lorem ipsum dolor sit amet, consectetur adipiscing "
    ... "elit. Quonam modo? Utrum igitur tibi litteram videor an totas paginas "
    ... "commovere? Non autem hoc: igitur ne illud quidem. Fortasse id optimum, "
    ... "sed ubi illud: Plus semper voluptatis? Teneo, inquit, finem illi videri "
    ... "nihil dolere. Transfer idem ad modestiam vel temperantiam, quae est "
    ... "moderatio cupiditatum rationi oboediens. Si id dicis, vicimus. Inde "
    ... "sermone vario sex illa a Dipylo stadia confecimus. Sin aliud quid "
    ... "voles, postea. Quae animi affectio suum cuique tribuens atque hanc, "
    ... "quam dico. Utinam quidem dicerent alium alio beatiorem! Iam ruinas "
    ... "videres") # doctest: +NORMALIZE_WHITESPACE
    Lorem ipsum dolor sit amet, consectetur adipiscing elit.
    <BLANKLINE>
    Quonam modo?
    <BLANKLINE>
    Utrum igitur tibi litteram videor an totas paginas commovere?
    <BLANKLINE>
    Non autem hoc:
    <BLANKLINE>
    igitur ne illud quidem.
    <BLANKLINE>
    Fortasse id optimum, sed ubi illud:
    <BLANKLINE>
    Plus semper voluptatis?
    <BLANKLINE>
    Teneo, inquit, finem illi videri nihil dolere.
    <BLANKLINE>
    Transfer idem ad modestiam vel temperantiam,
    quae est moderatio cupiditatum rationi oboediens.
    <BLANKLINE>
    Si id dicis, vicimus.
    <BLANKLINE>
    Inde sermone vario sex illa a Dipylo stadia confecimus.
    <BLANKLINE>
    Sin aliud quid voles, postea.
    <BLANKLINE>
    Quae animi affectio suum cuique tribuens atque hanc, quam dico.
    <BLANKLINE>
    Utinam quidem dicerent alium alio beatiorem! Iam ruinas videres


``text`` must be a string. Raise TypeError if it is not.


::


    >>> text_indentation(89)
    Traceback (most recent call last):
    TypeError: text must be a string


::


    >>> text_indentation({"key": 1, "bags": 2})
    Traceback (most recent call last):
    TypeError: text must be a string


::


    >>> text_indentation(None)
    Traceback (most recent call last):
    TypeError: text must be a string
